pcf
* control data
restart estimation
    104   8343      8      0      4
     1     1   single   point   1   0   0
5.0   2.0    0.3    0.03    10  999
5.0   5.0   1.0e-3
0.1   aui
0   .005  4   4  .005   4
1    1    1
* parameter groups
precip       relative     0.1000      1.0000E-05  switch      2.000      outside_pts
evap         relative     0.1000      1.0000E-05  switch      2.000      outside_pts
solar        relative     0.1500      1.0000E-05  switch      2.000      outside_pts
snow         relative     0.1000      1.0000E-05  switch      2.000      outside_pts
precipadj    relative     1.0000E-02  1.0000E-05  switch      2.000      outside_pts
soilzone     relative     0.1000      1.0000E-05  switch      2.000      outside_pts
gwres        relative     0.1000      1.0000E-05  switch      2.000      outside_pts
ssres        relative     0.1000      1.0000E-05  switch      2.000      outside_pts
* parameter data
snow_intcp   log    factor       0.10000       1.00000E-07    5.0000      precip         1.000       0.000        1
wrain_intcp  log    factor       0.10000       1.00000E-07   0.20000      precip         1.000       0.000        1
srain_intcp  log    factor       0.10000       1.00000E-07   0.30000      precip         1.000       0.000        1
jh_coef      log    factor       1.40000E-02   5.00000E-03   6.00000E-02  evap           1.000       0.000        1
jh_coef_hru  log    factor        13.000        5.0000        20.000      evap           1.000       0.000        1
transp_tmax  log    factor        500.00       1.00000E-07    1000.0      evap           1.000       0.000        1
radmax       log    factor       0.80000       1.00000E-07    1.0000      solar          1.000       0.000        1
radj_sppt    log    factor       0.44000       1.00000E-07    1.0000      solar          1.000       0.000        1
radj_wppt    log    factor       0.50000       1.00000E-07    1.0000      solar          1.000       0.000        1
albset_rna   log    factor       0.80000       1.00000E-07    1.0000      snow           1.000       0.000        1
albset_rnm   log    factor       0.60000       1.00000E-07    1.0000      snow           1.000       0.000        1
albset_sna   log    factor       5.00000E-02   1.00000E-03    1.0000      snow           1.000       0.000        1
albset_snm   log    factor       0.20000       1.00000E-03    1.0000      snow           1.000       0.000        1
cecn_coef    log    factor        5.0000       1.00000E-07    20.000      solar          1.000       0.000        1
den_init     log    factor       0.10000       1.00000E-02   0.50000      snow           1.000       0.000        1
rad_trncf    log    factor       0.50000       1.00000E-07    1.0000      snow           1.000       0.000        1
potet_sublim log    factor       0.50000       0.10000       0.75000      snow           1.000       0.000        1
tmax_allsnow log    factor        5.0000        2.0000        8.0000      snow           1.000      -5.000        1
tmax_allrain log    factor        4.4400        1.0000        7.0000      snow           1.000       0.000        1
freeh2o_cap  log    factor       5.00000E-02   1.00000E-02   0.20000      snow           1.000       0.000        1
settle_const log    factor       0.10000       1.00000E-02   0.50000      snow           1.000       0.000        1
ccov_intcp   log    factor        1.8300       1.00000E-07    5.0000      solar          1.000       0.000        1
ccov_slope   log    factor       0.87000       0.50000       0.99000      solar          1.000      -1.000        1
psta_mon     log    factor        1.0000       0.99000        1.2000      precipadj      1.000       0.000        1
fl_1         log    factor       0.10000       1.00000E-07    1.0000      soilzone       1.000       0.000        1
fl_2         log    factor       0.10000       1.00000E-07    1.0000      soilzone       1.000       0.000        1
fl_3         log    factor       0.10000       1.00000E-07    1.0000      soilzone       1.000       0.000        1
fl_4         log    factor       0.10000       1.00000E-07    1.0000      soilzone       1.000       0.000        1
fl_5         log    factor       0.10000       1.00000E-07    1.0000      soilzone       1.000       0.000        1
fl_6         log    factor       0.10000       1.00000E-07    1.0000      soilzone       1.000       0.000        1
fsq_1        log    factor       0.80000       1.00000E-07    1.0000      soilzone       1.000       0.000        1
fsq_2        log    factor       0.80000       1.00000E-07    1.0000      soilzone       1.000       0.000        1
fsq_3        log    factor       0.80000       1.00000E-07    1.0000      soilzone       1.000       0.000        1
fsq_4        log    factor       0.80000       1.00000E-07    1.0000      soilzone       1.000       0.000        1
fsq_5        log    factor       0.80000       1.00000E-07    1.0000      soilzone       1.000       0.000        1
fsq_6        log    factor       0.80000       1.00000E-07    1.0000      soilzone       1.000       0.000        1
pfd_1        log    factor       0.20000       1.00000E-07    1.0000      soilzone       1.000       0.000        1
pfd_2        log    factor       0.20000       1.00000E-07    1.0000      soilzone       1.000       0.000        1
pfd_3        log    factor       0.20000       1.00000E-07    1.0000      soilzone       1.000       0.000        1
pfd_4        log    factor       0.20000       1.00000E-07    1.0000      soilzone       1.000       0.000        1
pfd_5        log    factor       0.20000       1.00000E-07    1.0000      soilzone       1.000       0.000        1
pfd_6        log    factor       0.20000       1.00000E-07    1.0000      soilzone       1.000       0.000        1
sl_1         log    factor       1.50000E-02   1.00000E-07    1.0000      soilzone       1.000       0.000        1
sl_2         log    factor       1.50000E-02   1.00000E-07    1.0000      soilzone       1.000       0.000        1
sl_3         log    factor       1.50000E-02   1.00000E-07    1.0000      soilzone       1.000       0.000        1
sl_4         log    factor       1.50000E-02   1.00000E-07    1.0000      soilzone       1.000       0.000        1
sl_5         log    factor       1.50000E-02   1.00000E-07    1.0000      soilzone       1.000       0.000        1
sl_6         log    factor       1.50000E-02   1.00000E-07    1.0000      soilzone       1.000       0.000        1
ssq_1        log    factor       0.10000       1.00000E-07    1.0000      soilzone       1.000       0.000        1
ssq_2        log    factor       0.10000       1.00000E-07    1.0000      soilzone       1.000       0.000        1
ssq_3        log    factor       0.10000       1.00000E-07    1.0000      soilzone       1.000       0.000        1
ssq_4        log    factor       0.10000       1.00000E-07    1.0000      soilzone       1.000       0.000        1
ssq_5        log    factor       0.10000       1.00000E-07    1.0000      soilzone       1.000       0.000        1
ssq_6        log    factor       0.10000       1.00000E-07    1.0000      soilzone       1.000       0.000        1
smcf_1       log    factor       1.00000E-02   1.00000E-07    1.0000      soilzone       1.000       0.000        1
smcf_2       log    factor       1.00000E-02   1.00000E-07    1.0000      soilzone       1.000       0.000        1
smcf_3       log    factor       1.00000E-02   1.00000E-07    1.0000      soilzone       1.000       0.000        1
smcf_4       log    factor       1.00000E-02   1.00000E-07    1.0000      soilzone       1.000       0.000        1
smcf_5       log    factor       1.00000E-02   1.00000E-07    1.0000      soilzone       1.000       0.000        1
smcf_6       log    factor       1.00000E-02   1.00000E-07    1.0000      soilzone       1.000       0.000        1
smex_1       log    factor       0.30000       0.20000       0.80000      soilzone       1.000       0.000        1
smex_2       log    factor       0.30000       0.20000       0.80000      soilzone       1.000       0.000        1
smex_3       log    factor       0.30000       0.20000       0.80000      soilzone       1.000       0.000        1
smex_4       log    factor       0.30000       0.20000       0.80000      soilzone       1.000       0.000        1
smex_5       log    factor       0.30000       0.20000       0.80000      soilzone       1.000       0.000        1
smex_6       log    factor       0.30000       0.20000       0.80000      soilzone       1.000       0.000        1
snmx_1       log    factor        2.0000       1.00000E-07    20.000      soilzone       1.000       0.000        1
snmx_2       log    factor        2.0000       1.00000E-07    20.000      soilzone       1.000       0.000        1
snmx_3       log    factor        2.0000       1.00000E-07    20.000      soilzone       1.000       0.000        1
snmx_4       log    factor        2.0000       1.00000E-07    20.000      soilzone       1.000       0.000        1
snmx_5       log    factor        2.0000       1.00000E-07    20.000      soilzone       1.000       0.000        1
snmx_6       log    factor        2.0000       1.00000E-07    20.000      soilzone       1.000       0.000        1
s2gmx_1      log    factor       1.00000E-04   1.00000E-07    5.0000      gwres          1.000       0.000        1
s2gmx_2      log    factor       1.00000E-04   1.00000E-07    5.0000      gwres          1.000       0.000        1
s2gmx_3      log    factor       1.00000E-04   1.00000E-07    5.0000      gwres          1.000       0.000        1
s2gmx_4      log    factor       1.00000E-04   1.00000E-07    5.0000      gwres          1.000       0.000        1
s2gmx_5      log    factor       1.00000E-04   1.00000E-07    5.0000      gwres          1.000       0.000        1
s2gmx_6      log    factor       1.00000E-04   1.00000E-07    5.0000      gwres          1.000       0.000        1
smm_1        log    factor        6.0000       1.00000E-07    20.000      soilzone       1.000       0.000        1
smm_2        log    factor        6.0000       1.00000E-07    20.000      soilzone       1.000       0.000        1
smm_3        log    factor        6.0000       1.00000E-07    20.000      soilzone       1.000       0.000        1
smm_4        log    factor        6.0000       1.00000E-07    20.000      soilzone       1.000       0.000        1
smm_5        log    factor        6.0000       1.00000E-07    20.000      soilzone       1.000       0.000        1
smm_6        log    factor        6.0000       1.00000E-07    20.000      soilzone       1.000       0.000        1
srm_fac      log    factor       0.33333       1.00000E-07   0.95000      soilzone       1.000       0.000        1
gwc_1        log    factor       1.50000E-02   1.00000E-07    1.0000      gwres          1.000       0.000        1
gwc_2        log    factor       1.50000E-02   1.00000E-07    1.0000      gwres          1.000       0.000        1
gwc_3        log    factor       1.50000E-02   1.00000E-07    1.0000      gwres          1.000       0.000        1
gwc_4        log    factor       1.50000E-02   1.00000E-07    1.0000      gwres          1.000       0.000        1
gwc_5        log    factor       1.50000E-02   1.00000E-07    1.0000      gwres          1.000       0.000        1
gwc_6        log    factor       1.50000E-02   1.00000E-07    1.0000      gwres          1.000       0.000        1
ssr2g_1      log    factor       0.10000       1.00000E-07    1.0000      ssres          1.000       0.000        1
ssr2g_2      log    factor       0.10000       1.00000E-07    1.0000      ssres          1.000       0.000        1
ssr2g_3      log    factor       0.10000       1.00000E-07    1.0000      ssres          1.000       0.000        1
ssr2g_4      log    factor       0.10000       1.00000E-07    1.0000      ssres          1.000       0.000        1
ssr2g_5      log    factor       0.10000       1.00000E-07    1.0000      ssres          1.000       0.000        1
ssr2g_6      log    factor       0.10000       1.00000E-07    1.0000      ssres          1.000       0.000        1
ssr2ge_1     log    factor        1.0000       1.00000E-07    3.0000      ssres          1.000       0.000        1
ssr2ge_2     log    factor        1.0000       1.00000E-07    3.0000      ssres          1.000       0.000        1
ssr2ge_3     log    factor        1.0000       1.00000E-07    3.0000      ssres          1.000       0.000        1
ssr2ge_4     log    factor        1.0000       1.00000E-07    3.0000      ssres          1.000       0.000        1
ssr2ge_5     log    factor        1.0000       1.00000E-07    3.0000      ssres          1.000       0.000        1
ssr2ge_6     log    factor        1.0000       1.00000E-07    3.0000      ssres          1.000       0.000        1
pimp_fact    log    factor        1.0000       0.50000        2.0000      precip         1.000       0.000        1
* observation groups
lnq6500
vq6500
vst6500
sim_hyd_indx
* observation data
lnq6500_1              3.806685        0.202500      lnq6500
lnq6500_2              3.806685        0.202500      lnq6500
lnq6500_3              3.713596        0.168100      lnq6500
lnq6500_4              3.713596        0.168100      lnq6500
lnq6500_5              3.713596        0.168100      lnq6500
lnq6500_6              3.713596        0.168100      lnq6500
lnq6500_7              3.688905        0.160000      lnq6500
lnq6500_8              3.688905        0.160000      lnq6500
lnq6500_9              3.688905        0.160000      lnq6500
lnq6500_10             3.688905        0.160000      lnq6500
lnq6500_11             3.555377        0.122500      lnq6500
lnq6500_12             3.401231        9.000000E-02  lnq6500
lnq6500_13             3.401231        9.000000E-02  lnq6500
lnq6500_14             3.401231        9.000000E-02  lnq6500
lnq6500_15             3.401231        9.000000E-02  lnq6500
lnq6500_16             3.401231        9.000000E-02  lnq6500
lnq6500_17             3.401231        9.000000E-02  lnq6500
lnq6500_18             3.295874        7.290000E-02  lnq6500
lnq6500_19             3.295874        7.290000E-02  lnq6500
lnq6500_20             3.367330        8.410000E-02  lnq6500
lnq6500_21             3.434020        9.610000E-02  lnq6500
lnq6500_22             3.434020        9.610000E-02  lnq6500
lnq6500_23             3.434020        9.610000E-02  lnq6500
lnq6500_24             3.465767        0.102400      lnq6500
lnq6500_25             3.526390        0.115600      lnq6500
lnq6500_26             3.526390        0.115600      lnq6500
lnq6500_27             3.526390        0.115600      lnq6500
lnq6500_28             3.555377        0.122500      lnq6500
lnq6500_29             3.555377        0.122500      lnq6500
lnq6500_30             3.555377        0.122500      lnq6500
lnq6500_31             3.555377        0.122500      lnq6500
lnq6500_32             3.555377        0.122500      lnq6500
lnq6500_33             3.555377        0.122500      lnq6500
lnq6500_34             3.555377        0.122500      lnq6500
lnq6500_35             3.555377        0.122500      lnq6500
lnq6500_36             3.526390        0.115600      lnq6500
lnq6500_37             3.496538        0.108900      lnq6500
lnq6500_38             3.496538        0.108900      lnq6500
lnq6500_39             3.465767        0.102400      lnq6500
lnq6500_40             3.496538        0.108900      lnq6500
lnq6500_41             3.496538        0.108900      lnq6500
lnq6500_42             3.465767        0.102400      lnq6500
lnq6500_43             3.465767        0.102400      lnq6500
lnq6500_44             3.434020        9.610000E-02  lnq6500
lnq6500_45             3.465767        0.102400      lnq6500
lnq6500_46             3.434020        9.610000E-02  lnq6500
lnq6500_47             3.434020        9.610000E-02  lnq6500
lnq6500_48             3.434020        9.610000E-02  lnq6500
lnq6500_49             3.401231        9.000000E-02  lnq6500
lnq6500_50             3.332240        7.840000E-02  lnq6500
lnq6500_51             4.330747        0.577600      lnq6500
lnq6500_52             5.147501         2.95840      lnq6500
lnq6500_53             5.257501         3.68640      lnq6500
lnq6500_54             5.267863         3.76360      lnq6500
lnq6500_55             4.553887        0.902500      lnq6500
lnq6500_56             4.330747        0.577600      lnq6500
lnq6500_57             4.204708        0.448900      lnq6500
lnq6500_58             4.290473        0.532900      lnq6500
lnq6500_59             4.430829        0.705600      lnq6500
lnq6500_60             4.356722        0.608400      lnq6500
lnq6500_61             4.262694        0.504100      lnq6500
lnq6500_62             4.189670        0.435600      lnq6500
lnq6500_63             4.060460        0.336400      lnq6500
lnq6500_64             4.007351        0.302500      lnq6500
lnq6500_65             4.043069        0.324900      lnq6500
lnq6500_66             4.204708        0.448900      lnq6500
lnq6500_67             4.477348        0.774400      lnq6500
lnq6500_68             4.442663        0.722500      lnq6500
lnq6500_69             4.406732        0.672400      lnq6500
lnq6500_70             4.330747        0.577600      lnq6500
lnq6500_71             4.248509        0.490000      lnq6500
lnq6500_72             4.158899        0.409600      lnq6500
lnq6500_73             4.110890        0.372100      lnq6500
lnq6500_74             4.060460        0.336400      lnq6500
lnq6500_75             3.970311        0.280900      lnq6500
lnq6500_76             3.951263        0.270400      lnq6500
lnq6500_77             3.970311        0.280900      lnq6500
lnq6500_78             3.931845        0.260100      lnq6500
lnq6500_79             3.912043        0.250000      lnq6500
lnq6500_80             3.891841        0.240100      lnq6500
lnq6500_81             3.912043        0.250000      lnq6500
lnq6500_82             3.970311        0.280900      lnq6500
lnq6500_83             3.931845        0.260100      lnq6500
lnq6500_84             3.931845        0.260100      lnq6500
lnq6500_85             3.951263        0.270400      lnq6500
lnq6500_86             4.110890        0.372100      lnq6500
lnq6500_87             4.043069        0.324900      lnq6500
lnq6500_88             3.970311        0.280900      lnq6500
lnq6500_89             4.060460        0.336400      lnq6500
lnq6500_90             4.189670        0.435600      lnq6500
lnq6500_91             4.174403        0.422500      lnq6500
lnq6500_92             4.094361        0.360000      lnq6500
lnq6500_93             4.276680        0.518400      lnq6500
lnq6500_94             4.369461        0.624100      lnq6500
lnq6500_95             4.430829        0.705600      lnq6500
lnq6500_96             4.276680        0.518400      lnq6500
lnq6500_97             4.158899        0.409600      lnq6500
lnq6500_98             4.127151        0.384400      lnq6500
lnq6500_99             4.110890        0.372100      lnq6500
lnq6500_100            4.077554        0.348100      lnq6500
lnq6500_101            4.060460        0.336400      lnq6500
lnq6500_102            4.043069        0.324900      lnq6500
lnq6500_103            4.043069        0.324900      lnq6500
lnq6500_104            4.025370        0.313600      lnq6500
lnq6500_105            3.970311        0.280900      lnq6500
lnq6500_106            3.989002        0.291600      lnq6500
lnq6500_107            3.970311        0.280900      lnq6500
lnq6500_108            3.951263        0.270400      lnq6500
lnq6500_109            3.891841        0.240100      lnq6500
lnq6500_110            3.912043        0.250000      lnq6500
lnq6500_111            3.891841        0.240100      lnq6500
lnq6500_112            3.931845        0.260100      lnq6500
lnq6500_113            3.951263        0.270400      lnq6500
lnq6500_114            3.912043        0.250000      lnq6500
lnq6500_115            3.871222        0.230400      lnq6500
lnq6500_116            3.850169        0.220900      lnq6500
lnq6500_117            3.850169        0.220900      lnq6500
lnq6500_118            3.828663        0.211600      lnq6500
lnq6500_119            3.784212        0.193600      lnq6500
lnq6500_120            3.784212        0.193600      lnq6500
lnq6500_121            3.761223        0.184900      lnq6500
lnq6500_122            3.828663        0.211600      lnq6500
lnq6500_123            3.806685        0.202500      lnq6500
lnq6500_124            3.806685        0.202500      lnq6500
lnq6500_125            3.828663        0.211600      lnq6500
lnq6500_126            3.713596        0.168100      lnq6500
lnq6500_127            3.688905        0.160000      lnq6500
lnq6500_128            3.663587        0.152100      lnq6500
lnq6500_129            3.761223        0.184900      lnq6500
lnq6500_130            3.806685        0.202500      lnq6500
lnq6500_131            3.850169        0.220900      lnq6500
lnq6500_132            3.761223        0.184900      lnq6500
lnq6500_133            3.828663        0.211600      lnq6500
lnq6500_134            4.007351        0.302500      lnq6500
lnq6500_135            3.850169        0.220900      lnq6500
lnq6500_136            3.806685        0.202500      lnq6500
lnq6500_137            3.761223        0.184900      lnq6500
lnq6500_138            3.737693        0.176400      lnq6500
lnq6500_139            3.737693        0.176400      lnq6500
lnq6500_140            3.688905        0.160000      lnq6500
lnq6500_141            3.688905        0.160000      lnq6500
lnq6500_142            3.688905        0.160000      lnq6500
lnq6500_143            3.663587        0.152100      lnq6500
lnq6500_144            3.688905        0.160000      lnq6500
lnq6500_145            3.663587        0.152100      lnq6500
lnq6500_146            3.737693        0.176400      lnq6500
lnq6500_147            3.761223        0.184900      lnq6500
lnq6500_148            3.737693        0.176400      lnq6500
lnq6500_149            3.688905        0.160000      lnq6500
lnq6500_150            3.737693        0.176400      lnq6500
lnq6500_151            3.761223        0.184900      lnq6500
lnq6500_152            3.713596        0.168100      lnq6500
lnq6500_153            3.688905        0.160000      lnq6500
lnq6500_154            3.663587        0.152100      lnq6500
lnq6500_155            3.663587        0.152100      lnq6500
lnq6500_156            3.637613        0.144400      lnq6500
lnq6500_157            3.637613        0.144400      lnq6500
lnq6500_158            3.637613        0.144400      lnq6500
lnq6500_159            3.583547        0.129600      lnq6500
lnq6500_160            3.526390        0.115600      lnq6500
lnq6500_161            3.555377        0.122500      lnq6500
lnq6500_162            3.583547        0.129600      lnq6500
lnq6500_163            3.663587        0.152100      lnq6500
lnq6500_164            3.637613        0.144400      lnq6500
lnq6500_165            3.688905        0.160000      lnq6500
lnq6500_166            3.688905        0.160000      lnq6500
lnq6500_167            3.663587        0.152100      lnq6500
lnq6500_168            3.610945        0.136900      lnq6500
lnq6500_169            3.610945        0.136900      lnq6500
lnq6500_170            3.583547        0.129600      lnq6500
lnq6500_171            3.555377        0.122500      lnq6500
lnq6500_172            3.806685        0.202500      lnq6500
lnq6500_173            3.610945        0.136900      lnq6500
lnq6500_174            3.637613        0.144400      lnq6500
lnq6500_175            3.688905        0.160000      lnq6500
lnq6500_176            3.713596        0.168100      lnq6500
lnq6500_177            3.784212        0.193600      lnq6500
lnq6500_178            3.931845        0.260100      lnq6500
lnq6500_179            3.871222        0.230400      lnq6500
lnq6500_180            3.912043        0.250000      lnq6500
lnq6500_181            3.850169        0.220900      lnq6500
lnq6500_182            3.806685        0.202500      lnq6500
lnq6500_183            3.784212        0.193600      lnq6500
lnq6500_184            3.784212        0.193600      lnq6500
lnq6500_185            3.784212        0.193600      lnq6500
lnq6500_186            3.761223        0.184900      lnq6500
lnq6500_187            3.761223        0.184900      lnq6500
lnq6500_188            3.761223        0.184900      lnq6500
lnq6500_189            3.713596        0.168100      lnq6500
lnq6500_190            3.688905        0.160000      lnq6500
lnq6500_191            3.688905        0.160000      lnq6500
lnq6500_192            3.737693        0.176400      lnq6500
lnq6500_193            3.713596        0.168100      lnq6500
lnq6500_194            3.688905        0.160000      lnq6500
lnq6500_195            3.583547        0.129600      lnq6500
lnq6500_196            3.526390        0.115600      lnq6500
lnq6500_197            3.526390        0.115600      lnq6500
lnq6500_198            3.526390        0.115600      lnq6500
lnq6500_199            3.610945        0.136900      lnq6500
lnq6500_200            3.526390        0.115600      lnq6500
lnq6500_201            3.434020        9.610000E-02  lnq6500
lnq6500_202            3.401231        9.000000E-02  lnq6500
lnq6500_203            3.401231        9.000000E-02  lnq6500
lnq6500_204            3.526390        0.115600      lnq6500
lnq6500_205            6.104795         20.0704      lnq6500
lnq6500_206            5.442422         5.33610      lnq6500
lnq6500_207            4.418853        0.688900      lnq6500
lnq6500_208            4.158899        0.409600      lnq6500
lnq6500_209            4.007351        0.302500      lnq6500
lnq6500_210            3.951263        0.270400      lnq6500
lnq6500_211            3.912043        0.250000      lnq6500
lnq6500_212            3.828663        0.211600      lnq6500
lnq6500_213            3.761223        0.184900      lnq6500
lnq6500_214            3.737693        0.176400      lnq6500
lnq6500_215            3.713596        0.168100      lnq6500
lnq6500_216            3.688905        0.160000      lnq6500
lnq6500_217            3.610945        0.136900      lnq6500
lnq6500_218            3.610945        0.136900      lnq6500
lnq6500_219            3.555377        0.122500      lnq6500
lnq6500_220            3.526390        0.115600      lnq6500
lnq6500_221            3.555377        0.122500      lnq6500
lnq6500_222            3.465767        0.102400      lnq6500
lnq6500_223            3.555377        0.122500      lnq6500
lnq6500_224            4.025370        0.313600      lnq6500
lnq6500_225            3.806685        0.202500      lnq6500
lnq6500_226            3.663587        0.152100      lnq6500
lnq6500_227            3.583547        0.129600      lnq6500
lnq6500_228            3.663587        0.152100      lnq6500
lnq6500_229            3.637613        0.144400      lnq6500
lnq6500_230            3.610945        0.136900      lnq6500
lnq6500_231            3.610945        0.136900      lnq6500
lnq6500_232            3.583547        0.129600      lnq6500
lnq6500_233            3.583547        0.129600      lnq6500
lnq6500_234            3.583547        0.129600      lnq6500
lnq6500_235            3.637613        0.144400      lnq6500
lnq6500_236            3.850169        0.220900      lnq6500
lnq6500_237            3.891841        0.240100      lnq6500
lnq6500_238            3.688905        0.160000      lnq6500
lnq6500_239            3.610945        0.136900      lnq6500
lnq6500_240            3.663587        0.152100      lnq6500
lnq6500_241            3.713596        0.168100      lnq6500
lnq6500_242            3.663587        0.152100      lnq6500
lnq6500_243            3.610945        0.136900      lnq6500
lnq6500_244            3.583547        0.129600      lnq6500
lnq6500_245            3.555377        0.122500      lnq6500
lnq6500_246            3.555377        0.122500      lnq6500
lnq6500_247            4.158899        0.409600      lnq6500
lnq6500_248            3.871222        0.230400      lnq6500
lnq6500_249            3.663587        0.152100      lnq6500
lnq6500_250            3.610945        0.136900      lnq6500
lnq6500_251            4.736207         1.29960      lnq6500
lnq6500_252            4.234121        0.476100      lnq6500
lnq6500_253            3.989002        0.291600      lnq6500
lnq6500_254            3.806685        0.202500      lnq6500
lnq6500_255            3.713596        0.168100      lnq6500
lnq6500_256            3.663587        0.152100      lnq6500
lnq6500_257            3.637613        0.144400      lnq6500
lnq6500_258            3.663587        0.152100      lnq6500
lnq6500_259            3.784212        0.193600      lnq6500
lnq6500_260            3.713596        0.168100      lnq6500
lnq6500_261            3.663587        0.152100      lnq6500
lnq6500_262            3.637613        0.144400      lnq6500
lnq6500_263            3.637613        0.144400      lnq6500
lnq6500_264            3.737693        0.176400      lnq6500
lnq6500_265            3.951263        0.270400      lnq6500
lnq6500_266            3.912043        0.250000      lnq6500
lnq6500_267            3.784212        0.193600      lnq6500
lnq6500_268            3.850169        0.220900      lnq6500
lnq6500_269            3.828663        0.211600      lnq6500
lnq6500_270            3.761223        0.184900      lnq6500